[Config Scale5]
description = "Simulation with 5 sensor nodes - Secure Mode"
network = LightIoTNetwork
sim-time-limit = 10s

*.numSensorNodes = 5
*.sensor[*].batteryCapacity = 5000.0
*.sensor[*].consumptionPerMessage = 20.0
*.gateway.battery = 5000.0
*.gateway.costPerMsg = 10.0
*.sensor[*].hmac = "VALID"

*.fakeNode.attackMode = 0
*.fakeNode.active = false