[General]
network = LightIoTNetwork
sim-time-limit = 10s
output-scalar-file = results/attack_output.sca
output-vector-file = results/attack_output.vec

[Config ReplayAttackMode]
description = "Simulation with FakeNode performing replay attacks"
repeat = 1

*.numSensorNodes = 5

*.sensor[*].batteryCapacity = 5000.0
*.sensor[*].consumptionPerMessage = 20.0
*.gateway.battery = 5000.0
*.gateway.costPerMsg = 10.0

*.sensor[*].hmac = "VALID"

*.fakeNode.attackMode = 1     # 1 = Replay, 2 = MITM
*.fakeNode.active = true

cmdenv-express-mode = false