[General]
network = LightIoTNetwork
sim-time-limit = 10s
output-scalar-file = results/nosecure_output.sca
output-vector-file = results/nosecure_output.vec

[Config NoSecurityMode]
description = "Simulation without authentication (No HMAC validation)"
repeat = 1

*.numSensorNodes = 5

*.sensor[*].batteryCapacity = 5000.0
*.sensor[*].consumptionPerMessage = 10.0   # مصرف کمتر بدون رمزنگاری
*.gateway.battery = 5000.0
*.gateway.costPerMsg = 5.0

*.sensor[*].hmac = "NONE"   # بدون HMAC معتبر

*.fakeNode.attackMode = 0
*.fakeNode.active = false

cmdenv-express-mode = false